


 29 32  0  0  0  0  0  0  0  0999 V2000
   17.4670    0.8439  -16.8552 C   0  0  0  0  0  0  0  0  0  0  0  0
   17.3495    1.1879  -15.3542 C   0  0  0  0  0  0  0  0  0  0  0  0
   14.3327   -2.6341  -12.6736 C   0  0  0  0  0  0  0  0  0  0  0  0
   15.7902   -2.6752  -12.6673 N   0  0  0  0  0  0  0  0  0  0  0  0
   16.5765   -3.5825  -12.0384 C   0  0  0  0  0  0  0  0  0  0  0  0
   17.9033   -3.3287  -12.1784 N   0  0  0  0  0  0  0  0  0  0  0  0
   17.9155   -2.2141  -12.9368 C   0  0  0  0  0  0  0  0  0  0  0  0
   16.6575   -1.8194  -13.2345 C   0  0  0  0  0  0  0  0  0  0  0  0
   16.4385   -0.6916  -14.0135 C   0  0  0  0  0  0  0  0  0  0  0  0
   15.2617   -0.3281  -14.2865 O   0  0  0  0  0  0  0  0  0  0  0  0
   17.5327    0.0083  -14.4760 N   0  0  0  0  0  0  0  0  0  0  0  0
   18.8084   -0.3666  -14.0748 C   0  0  0  0  0  0  0  0  0  0  0  0
   19.7994    0.3590  -14.3714 O   0  0  0  0  0  0  0  0  0  0  0  0
   19.0095   -1.5169  -13.3434 N   0  0  0  0  0  0  0  0  0  0  0  0
   20.3576   -1.9368  -12.9395 C   0  0  0  0  0  0  0  0  0  0  0  0
   16.5157    1.6279  -17.7837 C   0  0  0  0  0  0  0  0  0  0  0  0
   16.6922    1.3030  -19.2181 N   0  0  0  0  0  0  0  0  0  0  0  0
   17.5716    2.0357  -19.9885 C   0  0  0  0  0  0  0  0  0  0  0  0
   18.2469    2.9813  -19.4967 O   0  0  0  0  0  0  0  0  0  0  0  0
   17.6970    1.7138  -21.3338 C   0  0  0  0  0  0  0  0  0  0  0  0
   16.9687    0.7091  -21.8687 C   0  0  0  0  0  0  0  0  0  0  0  0
   17.2488    0.5575  -23.1785 N   0  0  0  0  0  0  0  0  0  0  0  0
   18.1805    1.5223  -23.4005 C   0  0  0  0  0  0  0  0  0  0  0  0
   18.4723    2.2468  -22.2921 N   0  0  0  0  0  0  0  0  0  0  0  0
   19.4849    3.2915  -22.1729 C   0  0  0  0  0  0  0  0  0  0  0  0
   16.1140   -0.0438  -21.1262 N   0  0  0  0  0  0  0  0  0  0  0  0
   15.3803   -1.1593  -21.7377 C   0  0  0  0  0  0  0  0  0  0  0  0
   16.0219    0.2244  -19.7773 C   0  0  0  0  0  0  0  0  0  0  0  0
   15.3229   -0.5300  -19.0442 O   0  0  0  0  0  0  0  0  0  0  0  0
  3  4  1  0  0  0
  4  5  1  0  0  0
  4  8  1  0  0  0
  5  6  2  0  0  0
  6  7  1  0  0  0
  7  8  2  0  0  0
  7 14  1  0  0  0
  8  9  1  0  0  0
  9 10  2  0  0  0
  9 11  1  0  0  0
 11  2  1  0  0  0
 11 12  1  0  0  0
  2  1  1  0  0  0
  1 16  1  0  0  0
 16 17  1  0  0  0
 17 18  1  0  0  0
 17 28  1  0  0  0
 18 19  2  0  0  0
 18 20  1  0  0  0
 20 21  2  0  0  0
 20 24  1  0  0  0
 21 22  1  0  0  0
 21 26  1  0  0  0
 22 23  2  0  0  0
 23 24  1  0  0  0
 24 25  1  0  0  0
 26 27  1  0  0  0
 26 28  1  0  0  0
 28 29  2  0  0  0
 12 13  2  0  0  0
 12 14  1  0  0  0
 14 15  1  0  0  0
M  END
> <COMPND>
    ../0-casp/FSwOgs.pdb 

> <AUTHOR>
    GENERATED BY OPEN BABEL 3.1.0

> <MASTER>
        0    0    0    0    0    0    0    0   49    0   49    0

> <minimizedAffinity>
-6.89494

> <CNNscore>
0.8096944690

> <CNNaffinity>
5.5954194069

> <CNN_VS>
4.5305800438

> <CNNaffinity_variance>
0.1764885932

$$$$



 29 32  0  0  0  0  0  0  0  0999 V2000
    7.5537    2.3757  -11.6479 C   0  0  0  0  0  0  0  0  0  0  0  0
    8.9071    1.6822  -11.3787 C   0  0  0  0  0  0  0  0  0  0  0  0
    9.1500   -2.4666   -7.6878 C   0  0  0  0  0  0  0  0  0  0  0  0
    8.8374   -2.7146   -9.0902 N   0  0  0  0  0  0  0  0  0  0  0  0
    8.5887   -3.9147   -9.6691 C   0  0  0  0  0  0  0  0  0  0  0  0
    8.3758   -3.8289  -11.0077 N   0  0  0  0  0  0  0  0  0  0  0  0
    8.4963   -2.5072  -11.2449 C   0  0  0  0  0  0  0  0  0  0  0  0
    8.7695   -1.8353  -10.1044 C   0  0  0  0  0  0  0  0  0  0  0  0
    8.9289   -0.4565  -10.1195 C   0  0  0  0  0  0  0  0  0  0  0  0
    9.1852    0.1642   -9.0515 O   0  0  0  0  0  0  0  0  0  0  0  0
    8.7975    0.2054  -11.3219 N   0  0  0  0  0  0  0  0  0  0  0  0
    8.6112   -0.5219  -12.4904 C   0  0  0  0  0  0  0  0  0  0  0  0
    8.6417    0.0659  -13.6084 O   0  0  0  0  0  0  0  0  0  0  0  0
    8.4053   -1.8838  -12.4496 N   0  0  0  0  0  0  0  0  0  0  0  0
    8.1785   -2.6569  -13.6774 C   0  0  0  0  0  0  0  0  0  0  0  0
    6.4986    2.2086  -10.5341 C   0  0  0  0  0  0  0  0  0  0  0  0
    6.1646    3.4761   -9.8441 N   0  0  0  0  0  0  0  0  0  0  0  0
    5.0943    4.2339  -10.2728 C   0  0  0  0  0  0  0  0  0  0  0  0
    4.3754    3.8678  -11.2430 O   0  0  0  0  0  0  0  0  0  0  0  0
    4.8227    5.4255   -9.6129 C   0  0  0  0  0  0  0  0  0  0  0  0
    5.5952    5.8282   -8.5800 C   0  0  0  0  0  0  0  0  0  0  0  0
    5.1541    6.9990   -8.0783 N   0  0  0  0  0  0  0  0  0  0  0  0
    4.0796    7.2769   -8.8634 C   0  0  0  0  0  0  0  0  0  0  0  0
    3.8543    6.3345   -9.8119 N   0  0  0  0  0  0  0  0  0  0  0  0
    2.7384    6.2905  -10.7520 C   0  0  0  0  0  0  0  0  0  0  0  0
    6.6400    5.0882   -8.1224 N   0  0  0  0  0  0  0  0  0  0  0  0
    7.4218    5.5394   -6.9640 C   0  0  0  0  0  0  0  0  0  0  0  0
    6.8867    3.8750   -8.7284 C   0  0  0  0  0  0  0  0  0  0  0  0
    7.7777    3.1170   -8.2523 O   0  0  0  0  0  0  0  0  0  0  0  0
  3  4  1  0  0  0
  4  5  1  0  0  0
  4  8  1  0  0  0
  5  6  2  0  0  0
  6  7  1  0  0  0
  7  8  2  0  0  0
  7 14  1  0  0  0
  8  9  1  0  0  0
  9 10  2  0  0  0
  9 11  1  0  0  0
 11  2  1  0  0  0
 11 12  1  0  0  0
  2  1  1  0  0  0
  1 16  1  0  0  0
 16 17  1  0  0  0
 17 18  1  0  0  0
 17 28  1  0  0  0
 18 19  2  0  0  0
 18 20  1  0  0  0
 20 21  2  0  0  0
 20 24  1  0  0  0
 21 22  1  0  0  0
 21 26  1  0  0  0
 22 23  2  0  0  0
 23 24  1  0  0  0
 24 25  1  0  0  0
 26 27  1  0  0  0
 26 28  1  0  0  0
 28 29  2  0  0  0
 12 13  2  0  0  0
 12 14  1  0  0  0
 14 15  1  0  0  0
M  END
> <COMPND>
    ../0-casp/FSwOgs.pdb 

> <AUTHOR>
    GENERATED BY OPEN BABEL 3.1.0

> <MASTER>
        0    0    0    0    0    0    0    0   49    0   49    0

> <minimizedAffinity>
-8.54471

> <CNNscore>
0.7717949748

> <CNNaffinity>
5.9799690247

> <CNN_VS>
4.6153101921

> <CNNaffinity_variance>
0.4120728374

$$$$



 29 32  0  0  0  0  0  0  0  0999 V2000
    8.2628    1.6224  -10.8317 C   0  0  0  0  0  0  0  0  0  0  0  0
    7.2643    1.6113   -9.6536 C   0  0  0  0  0  0  0  0  0  0  0  0
    3.3620    5.1943  -11.3356 C   0  0  0  0  0  0  0  0  0  0  0  0
    4.2089    5.4789  -10.1833 N   0  0  0  0  0  0  0  0  0  0  0  0
    4.1832    6.5909   -9.4087 C   0  0  0  0  0  0  0  0  0  0  0  0
    5.1301    6.5865   -8.4351 N   0  0  0  0  0  0  0  0  0  0  0  0
    5.7535    5.4071   -8.6304 C   0  0  0  0  0  0  0  0  0  0  0  0
    5.2073    4.7393   -9.6709 C   0  0  0  0  0  0  0  0  0  0  0  0
    5.6957    3.4947  -10.0440 C   0  0  0  0  0  0  0  0  0  0  0  0
    5.1822    2.8775  -11.0171 O   0  0  0  0  0  0  0  0  0  0  0  0
    6.7440    2.9596   -9.3257 N   0  0  0  0  0  0  0  0  0  0  0  0
    7.3450    3.7105   -8.3238 C   0  0  0  0  0  0  0  0  0  0  0  0
    8.3977    3.2879   -7.7672 O   0  0  0  0  0  0  0  0  0  0  0  0
    6.8154    4.9215   -7.9343 N   0  0  0  0  0  0  0  0  0  0  0  0
    7.4271    5.7089   -6.8561 C   0  0  0  0  0  0  0  0  0  0  0  0
    8.4888    0.2560  -11.5124 C   0  0  0  0  0  0  0  0  0  0  0  0
    9.8601   -0.2734  -11.3303 N   0  0  0  0  0  0  0  0  0  0  0  0
   10.1718   -1.0103  -10.2062 C   0  0  0  0  0  0  0  0  0  0  0  0
    9.3070   -1.2584   -9.3215 O   0  0  0  0  0  0  0  0  0  0  0  0
   11.4727   -1.4747  -10.0610 C   0  0  0  0  0  0  0  0  0  0  0  0
   12.4059   -1.2034  -10.9999 C   0  0  0  0  0  0  0  0  0  0  0  0
   13.5919   -1.7531  -10.6710 N   0  0  0  0  0  0  0  0  0  0  0  0
   13.3217   -2.3661   -9.4881 C   0  0  0  0  0  0  0  0  0  0  0  0
   12.0353   -2.2107   -9.0886 N   0  0  0  0  0  0  0  0  0  0  0  0
   11.4058   -2.8116   -7.9167 C   0  0  0  0  0  0  0  0  0  0  0  0
   12.1187   -0.5009  -12.1281 N   0  0  0  0  0  0  0  0  0  0  0  0
   13.1514   -0.2729  -13.1468 C   0  0  0  0  0  0  0  0  0  0  0  0
   10.8185   -0.0835  -12.3156 C   0  0  0  0  0  0  0  0  0  0  0  0
   10.4993    0.4715  -13.4044 O   0  0  0  0  0  0  0  0  0  0  0  0
  3  4  1  0  0  0
  4  5  1  0  0  0
  4  8  1  0  0  0
  5  6  2  0  0  0
  6  7  1  0  0  0
  7  8  2  0  0  0
  7 14  1  0  0  0
  8  9  1  0  0  0
  9 10  2  0  0  0
  9 11  1  0  0  0
 11  2  1  0  0  0
 11 12  1  0  0  0
  2  1  1  0  0  0
  1 16  1  0  0  0
 16 17  1  0  0  0
 17 18  1  0  0  0
 17 28  1  0  0  0
 18 19  2  0  0  0
 18 20  1  0  0  0
 20 21  2  0  0  0
 20 24  1  0  0  0
 21 22  1  0  0  0
 21 26  1  0  0  0
 22 23  2  0  0  0
 23 24  1  0  0  0
 24 25  1  0  0  0
 26 27  1  0  0  0
 26 28  1  0  0  0
 28 29  2  0  0  0
 12 13  2  0  0  0
 12 14  1  0  0  0
 14 15  1  0  0  0
M  END
> <COMPND>
    ../0-casp/FSwOgs.pdb 

> <AUTHOR>
    GENERATED BY OPEN BABEL 3.1.0

> <MASTER>
        0    0    0    0    0    0    0    0   49    0   49    0

> <minimizedAffinity>
-8.70473

> <CNNscore>
0.7418282032

> <CNNaffinity>
5.8473110199

> <CNN_VS>
4.3377003670

> <CNNaffinity_variance>
0.4259206653

$$$$



 29 32  0  0  0  0  0  0  0  0999 V2000
    7.3961    1.1092   -9.9772 C   0  0  0  0  0  0  0  0  0  0  0  0
    7.7736    0.0199  -11.0048 C   0  0  0  0  0  0  0  0  0  0  0  0
   11.2029   -2.7997   -7.6605 C   0  0  0  0  0  0  0  0  0  0  0  0
   11.6609   -2.2537   -8.9325 N   0  0  0  0  0  0  0  0  0  0  0  0
   12.9109   -2.3344   -9.4505 C   0  0  0  0  0  0  0  0  0  0  0  0
   13.0417   -1.6841  -10.6356 N   0  0  0  0  0  0  0  0  0  0  0  0
   11.8039   -1.1923  -10.8444 C   0  0  0  0  0  0  0  0  0  0  0  0
   10.9736   -1.5304   -9.8329 C   0  0  0  0  0  0  0  0  0  0  0  0
    9.6446   -1.1299   -9.8481 C   0  0  0  0  0  0  0  0  0  0  0  0
    8.8754   -1.4477   -8.9001 O   0  0  0  0  0  0  0  0  0  0  0  0
    9.1965   -0.3858  -10.9190 N   0  0  0  0  0  0  0  0  0  0  0  0
   10.0954    0.0259  -11.8945 C   0  0  0  0  0  0  0  0  0  0  0  0
    9.7221    0.8312  -12.7937 O   0  0  0  0  0  0  0  0  0  0  0  0
   11.3982   -0.4229  -11.8892 N   0  0  0  0  0  0  0  0  0  0  0  0
   12.3481   -0.0162  -12.9327 C   0  0  0  0  0  0  0  0  0  0  0  0
    7.9119    2.5263  -10.3048 C   0  0  0  0  0  0  0  0  0  0  0  0
    7.0912    3.6048   -9.7069 N   0  0  0  0  0  0  0  0  0  0  0  0
    5.9758    4.0721  -10.3712 C   0  0  0  0  0  0  0  0  0  0  0  0
    5.6241    3.5931  -11.4843 O   0  0  0  0  0  0  0  0  0  0  0  0
    5.2413    5.0968   -9.7883 C   0  0  0  0  0  0  0  0  0  0  0  0
    5.6189    5.6210   -8.6015 C   0  0  0  0  0  0  0  0  0  0  0  0
    4.7674    6.5908   -8.2122 N   0  0  0  0  0  0  0  0  0  0  0  0
    3.8621    6.6210   -9.2259 C   0  0  0  0  0  0  0  0  0  0  0  0
    4.1275    5.7210  -10.2048 N   0  0  0  0  0  0  0  0  0  0  0  0
    3.3083    5.4416  -11.3802 C   0  0  0  0  0  0  0  0  0  0  0  0
    6.6990    5.1619   -7.9151 N   0  0  0  0  0  0  0  0  0  0  0  0
    7.0436    5.7265   -6.6039 C   0  0  0  0  0  0  0  0  0  0  0  0
    7.4042    4.1060   -8.4515 C   0  0  0  0  0  0  0  0  0  0  0  0
    8.3416    3.5866   -7.7831 O   0  0  0  0  0  0  0  0  0  0  0  0
  3  4  1  0  0  0
  4  5  1  0  0  0
  4  8  1  0  0  0
  5  6  2  0  0  0
  6  7  1  0  0  0
  7  8  2  0  0  0
  7 14  1  0  0  0
  8  9  1  0  0  0
  9 10  2  0  0  0
  9 11  1  0  0  0
 11  2  1  0  0  0
 11 12  1  0  0  0
  2  1  1  0  0  0
  1 16  1  0  0  0
 16 17  1  0  0  0
 17 18  1  0  0  0
 17 28  1  0  0  0
 18 19  2  0  0  0
 18 20  1  0  0  0
 20 21  2  0  0  0
 20 24  1  0  0  0
 21 22  1  0  0  0
 21 26  1  0  0  0
 22 23  2  0  0  0
 23 24  1  0  0  0
 24 25  1  0  0  0
 26 27  1  0  0  0
 26 28  1  0  0  0
 28 29  2  0  0  0
 12 13  2  0  0  0
 12 14  1  0  0  0
 14 15  1  0  0  0
M  END
> <COMPND>
    ../0-casp/FSwOgs.pdb 

> <AUTHOR>
    GENERATED BY OPEN BABEL 3.1.0

> <MASTER>
        0    0    0    0    0    0    0    0   49    0   49    0

> <minimizedAffinity>
-8.75090

> <CNNscore>
0.7206244469

> <CNNaffinity>
5.8986558914

> <CNN_VS>
4.2507157326

> <CNNaffinity_variance>
0.3261843324

$$$$



 29 32  0  0  0  0  0  0  0  0999 V2000
   18.4960   -1.2741  -12.7633 C   0  0  0  0  0  0  0  0  0  0  0  0
   17.4204   -2.2386  -13.3091 C   0  0  0  0  0  0  0  0  0  0  0  0
   13.5961   -2.9160   -9.3329 C   0  0  0  0  0  0  0  0  0  0  0  0
   13.3647   -2.0285  -10.4663 N   0  0  0  0  0  0  0  0  0  0  0  0
   12.2520   -1.2945  -10.7119 C   0  0  0  0  0  0  0  0  0  0  0  0
   12.3157   -0.6001  -11.8774 N   0  0  0  0  0  0  0  0  0  0  0  0
   13.5332   -0.9287  -12.3543 C   0  0  0  0  0  0  0  0  0  0  0  0
   14.1662   -1.7792  -11.5160 C   0  0  0  0  0  0  0  0  0  0  0  0
   15.4404   -2.2432  -11.8125 C   0  0  0  0  0  0  0  0  0  0  0  0
   16.0249   -3.0380  -11.0263 O   0  0  0  0  0  0  0  0  0  0  0  0
   16.0407   -1.8118  -12.9765 N   0  0  0  0  0  0  0  0  0  0  0  0
   15.3284   -1.0144  -13.8628 C   0  0  0  0  0  0  0  0  0  0  0  0
   15.8170   -0.7423  -14.9958 O   0  0  0  0  0  0  0  0  0  0  0  0
   14.0850   -0.5232  -13.5287 N   0  0  0  0  0  0  0  0  0  0  0  0
   13.3368    0.3445  -14.4474 C   0  0  0  0  0  0  0  0  0  0  0  0
   19.8161   -1.9438  -12.3266 C   0  0  0  0  0  0  0  0  0  0  0  0
   19.6177   -3.2219  -11.6048 N   0  0  0  0  0  0  0  0  0  0  0  0
   19.8795   -4.4198  -12.2375 C   0  0  0  0  0  0  0  0  0  0  0  0
   20.2989   -4.4576  -13.4270 O   0  0  0  0  0  0  0  0  0  0  0  0
   19.6642   -5.5984  -11.5350 C   0  0  0  0  0  0  0  0  0  0  0  0
   19.2052   -5.5647  -10.2646 C   0  0  0  0  0  0  0  0  0  0  0  0
   19.0772   -6.8109   -9.7670 N   0  0  0  0  0  0  0  0  0  0  0  0
   19.4819   -7.5918  -10.8036 C   0  0  0  0  0  0  0  0  0  0  0  0
   19.8440   -6.8787  -11.8986 N   0  0  0  0  0  0  0  0  0  0  0  0
   20.4027   -7.4067  -13.1395 C   0  0  0  0  0  0  0  0  0  0  0  0
   18.9630   -4.3977   -9.6102 N   0  0  0  0  0  0  0  0  0  0  0  0
   18.5132   -4.4068   -8.2123 C   0  0  0  0  0  0  0  0  0  0  0  0
   19.2275   -3.2185  -10.2732 C   0  0  0  0  0  0  0  0  0  0  0  0
   19.1194   -2.1238   -9.6526 O   0  0  0  0  0  0  0  0  0  0  0  0
  3  4  1  0  0  0
  4  5  1  0  0  0
  4  8  1  0  0  0
  5  6  2  0  0  0
  6  7  1  0  0  0
  7  8  2  0  0  0
  7 14  1  0  0  0
  8  9  1  0  0  0
  9 10  2  0  0  0
  9 11  1  0  0  0
 11  2  1  0  0  0
 11 12  1  0  0  0
  2  1  1  0  0  0
  1 16  1  0  0  0
 16 17  1  0  0  0
 17 18  1  0  0  0
 17 28  1  0  0  0
 18 19  2  0  0  0
 18 20  1  0  0  0
 20 21  2  0  0  0
 20 24  1  0  0  0
 21 22  1  0  0  0
 21 26  1  0  0  0
 22 23  2  0  0  0
 23 24  1  0  0  0
 24 25  1  0  0  0
 26 27  1  0  0  0
 26 28  1  0  0  0
 28 29  2  0  0  0
 12 13  2  0  0  0
 12 14  1  0  0  0
 14 15  1  0  0  0
M  END
> <COMPND>
    ../0-casp/FSwOgs.pdb 

> <AUTHOR>
    GENERATED BY OPEN BABEL 3.1.0

> <MASTER>
        0    0    0    0    0    0    0    0   49    0   49    0

> <minimizedAffinity>
-7.68031

> <CNNscore>
0.7072885633

> <CNNaffinity>
5.5028996468

> <CNN_VS>
3.8921380043

> <CNNaffinity_variance>
0.8960111737

$$$$



 29 32  0  0  0  0  0  0  0  0999 V2000
    7.0314    2.5582   -9.0897 C   0  0  0  0  0  0  0  0  0  0  0  0
    6.9340    4.0732   -8.8060 C   0  0  0  0  0  0  0  0  0  0  0  0
    5.7364    5.0067  -14.1529 C   0  0  0  0  0  0  0  0  0  0  0  0
    4.8486    5.4539  -13.0861 N   0  0  0  0  0  0  0  0  0  0  0  0
    3.6827    6.1306  -13.2271 C   0  0  0  0  0  0  0  0  0  0  0  0
    3.1034    6.4507  -12.0412 N   0  0  0  0  0  0  0  0  0  0  0  0
    3.9626    5.9335  -11.1401 C   0  0  0  0  0  0  0  0  0  0  0  0
    5.0057    5.3348  -11.7567 C   0  0  0  0  0  0  0  0  0  0  0  0
    6.0103    4.7294  -11.0143 C   0  0  0  0  0  0  0  0  0  0  0  0
    6.9819    4.1735  -11.5962 O   0  0  0  0  0  0  0  0  0  0  0  0
    5.9132    4.7517   -9.6390 N   0  0  0  0  0  0  0  0  0  0  0  0
    4.8804    5.4561   -9.0340 C   0  0  0  0  0  0  0  0  0  0  0  0
    4.8723    5.6062   -7.7795 O   0  0  0  0  0  0  0  0  0  0  0  0
    3.8659    6.0075   -9.7861 N   0  0  0  0  0  0  0  0  0  0  0  0
    2.7544    6.7291   -9.1532 C   0  0  0  0  0  0  0  0  0  0  0  0
    8.4647    2.0166   -9.2737 C   0  0  0  0  0  0  0  0  0  0  0  0
    8.5684    0.5504   -9.0906 N   0  0  0  0  0  0  0  0  0  0  0  0
    8.4666   -0.2901  -10.1800 C   0  0  0  0  0  0  0  0  0  0  0  0
    8.2954    0.1615  -11.3457 O   0  0  0  0  0  0  0  0  0  0  0  0
    8.5504   -1.6601   -9.9671 C   0  0  0  0  0  0  0  0  0  0  0  0
    8.7231   -2.1503   -8.7198 C   0  0  0  0  0  0  0  0  0  0  0  0
    8.7884   -3.4965   -8.7377 N   0  0  0  0  0  0  0  0  0  0  0  0
    8.6454   -3.7872  -10.0580 C   0  0  0  0  0  0  0  0  0  0  0  0
    8.4951   -2.6849  -10.8333 N   0  0  0  0  0  0  0  0  0  0  0  0
    8.4056   -2.6469  -12.2898 C   0  0  0  0  0  0  0  0  0  0  0  0
    8.8511   -1.3430   -7.6332 N   0  0  0  0  0  0  0  0  0  0  0  0
    9.0886   -1.9171   -6.3025 C   0  0  0  0  0  0  0  0  0  0  0  0
    8.8291    0.0203   -7.8350 C   0  0  0  0  0  0  0  0  0  0  0  0
    9.0581    0.7922   -6.8620 O   0  0  0  0  0  0  0  0  0  0  0  0
  3  4  1  0  0  0
  4  5  1  0  0  0
  4  8  1  0  0  0
  5  6  2  0  0  0
  6  7  1  0  0  0
  7  8  2  0  0  0
  7 14  1  0  0  0
  8  9  1  0  0  0
  9 10  2  0  0  0
  9 11  1  0  0  0
 11  2  1  0  0  0
 11 12  1  0  0  0
  2  1  1  0  0  0
  1 16  1  0  0  0
 16 17  1  0  0  0
 17 18  1  0  0  0
 17 28  1  0  0  0
 18 19  2  0  0  0
 18 20  1  0  0  0
 20 21  2  0  0  0
 20 24  1  0  0  0
 21 22  1  0  0  0
 21 26  1  0  0  0
 22 23  2  0  0  0
 23 24  1  0  0  0
 24 25  1  0  0  0
 26 27  1  0  0  0
 26 28  1  0  0  0
 28 29  2  0  0  0
 12 13  2  0  0  0
 12 14  1  0  0  0
 14 15  1  0  0  0
M  END
> <COMPND>
    ../0-casp/FSwOgs.pdb 

> <AUTHOR>
    GENERATED BY OPEN BABEL 3.1.0

> <MASTER>
        0    0    0    0    0    0    0    0   49    0   49    0

> <minimizedAffinity>
-8.85015

> <CNNscore>
0.6720641255

> <CNNaffinity>
5.8682169914

> <CNN_VS>
3.9438180923

> <CNNaffinity_variance>
0.3656916618

$$$$



 29 32  0  0  0  0  0  0  0  0999 V2000
    8.0146    2.2103  -14.0123 C   0  0  0  0  0  0  0  0  0  0  0  0
    8.9297    2.5688  -12.8210 C   0  0  0  0  0  0  0  0  0  0  0  0
   13.6290   -0.0082  -14.2944 C   0  0  0  0  0  0  0  0  0  0  0  0
   12.8916   -0.3980  -13.0985 N   0  0  0  0  0  0  0  0  0  0  0  0
   13.2117   -1.3893  -12.2314 C   0  0  0  0  0  0  0  0  0  0  0  0
   12.3011   -1.5438  -11.2357 N   0  0  0  0  0  0  0  0  0  0  0  0
   11.3890   -0.5911  -11.5151 C   0  0  0  0  0  0  0  0  0  0  0  0
   11.7361    0.0985  -12.6245 C   0  0  0  0  0  0  0  0  0  0  0  0
   10.9364    1.1331  -13.0903 C   0  0  0  0  0  0  0  0  0  0  0  0
   11.2656    1.7717  -14.1272 O   0  0  0  0  0  0  0  0  0  0  0  0
    9.7874    1.4388  -12.3920 N   0  0  0  0  0  0  0  0  0  0  0  0
    9.4089    0.6515  -11.3123 C   0  0  0  0  0  0  0  0  0  0  0  0
    8.2846    0.8332  -10.7652 O   0  0  0  0  0  0  0  0  0  0  0  0
   10.2397   -0.3385  -10.8343 N   0  0  0  0  0  0  0  0  0  0  0  0
    9.8609   -1.1567   -9.6751 C   0  0  0  0  0  0  0  0  0  0  0  0
    6.5098    2.1258  -13.6807 C   0  0  0  0  0  0  0  0  0  0  0  0
    5.6424    2.7211  -14.7234 N   0  0  0  0  0  0  0  0  0  0  0  0
    5.0933    1.9207  -15.7040 C   0  0  0  0  0  0  0  0  0  0  0  0
    5.3037    0.6769  -15.7323 O   0  0  0  0  0  0  0  0  0  0  0  0
    4.3001    2.5172  -16.6757 C   0  0  0  0  0  0  0  0  0  0  0  0
    4.0797    3.8502  -16.6568 C   0  0  0  0  0  0  0  0  0  0  0  0
    3.2791    4.2191  -17.6767 N   0  0  0  0  0  0  0  0  0  0  0  0
    3.0323    3.0401  -18.3069 C   0  0  0  0  0  0  0  0  0  0  0  0
    3.6453    1.9829  -17.7195 N   0  0  0  0  0  0  0  0  0  0  0  0
    3.5154    0.5783  -18.0951 C   0  0  0  0  0  0  0  0  0  0  0  0
    4.5885    4.6571  -15.6879 N   0  0  0  0  0  0  0  0  0  0  0  0
    4.2815    6.0932  -15.6773 C   0  0  0  0  0  0  0  0  0  0  0  0
    5.3291    4.0723  -14.6833 C   0  0  0  0  0  0  0  0  0  0  0  0
    5.7182    4.7792  -13.7117 O   0  0  0  0  0  0  0  0  0  0  0  0
  3  4  1  0  0  0
  4  5  1  0  0  0
  4  8  1  0  0  0
  5  6  2  0  0  0
  6  7  1  0  0  0
  7  8  2  0  0  0
  7 14  1  0  0  0
  8  9  1  0  0  0
  9 10  2  0  0  0
  9 11  1  0  0  0
 11  2  1  0  0  0
 11 12  1  0  0  0
  2  1  1  0  0  0
  1 16  1  0  0  0
 16 17  1  0  0  0
 17 18  1  0  0  0
 17 28  1  0  0  0
 18 19  2  0  0  0
 18 20  1  0  0  0
 20 21  2  0  0  0
 20 24  1  0  0  0
 21 22  1  0  0  0
 21 26  1  0  0  0
 22 23  2  0  0  0
 23 24  1  0  0  0
 24 25  1  0  0  0
 26 27  1  0  0  0
 26 28  1  0  0  0
 28 29  2  0  0  0
 12 13  2  0  0  0
 12 14  1  0  0  0
 14 15  1  0  0  0
M  END
> <COMPND>
    ../0-casp/FSwOgs.pdb 

> <AUTHOR>
    GENERATED BY OPEN BABEL 3.1.0

> <MASTER>
        0    0    0    0    0    0    0    0   49    0   49    0

> <minimizedAffinity>
-7.12835

> <CNNscore>
0.4756478071

> <CNNaffinity>
5.6824226379

> <CNN_VS>
2.7028319836

> <CNNaffinity_variance>
0.2061919272

$$$$



 29 32  0  0  0  0  0  0  0  0999 V2000
   19.0187    0.1118  -15.8310 C   0  0  0  0  0  0  0  0  0  0  0  0
   18.8770    0.4088  -14.3221 C   0  0  0  0  0  0  0  0  0  0  0  0
   15.9067   -3.6094  -11.8878 C   0  0  0  0  0  0  0  0  0  0  0  0
   17.3634   -3.5981  -11.8265 N   0  0  0  0  0  0  0  0  0  0  0  0
   18.1590   -4.4976  -11.1979 C   0  0  0  0  0  0  0  0  0  0  0  0
   19.4797   -4.1915  -11.2779 N   0  0  0  0  0  0  0  0  0  0  0  0
   19.4787   -3.0517  -11.9981 C   0  0  0  0  0  0  0  0  0  0  0  0
   18.2189   -2.6927  -12.3311 C   0  0  0  0  0  0  0  0  0  0  0  0
   17.9872   -1.5474  -13.0804 C   0  0  0  0  0  0  0  0  0  0  0  0
   16.8087   -1.2173  -13.3866 O   0  0  0  0  0  0  0  0  0  0  0  0
   19.0711   -0.7930  -13.4769 N   0  0  0  0  0  0  0  0  0  0  0  0
   20.3440   -1.1352  -13.0391 C   0  0  0  0  0  0  0  0  0  0  0  0
   21.3176   -0.3645  -13.2732 O   0  0  0  0  0  0  0  0  0  0  0  0
   20.5603   -2.3020  -12.3389 N   0  0  0  0  0  0  0  0  0  0  0  0
   21.9070   -2.6867  -11.8972 C   0  0  0  0  0  0  0  0  0  0  0  0
   18.3353    1.1311  -16.7667 C   0  0  0  0  0  0  0  0  0  0  0  0
   17.3756    0.5131  -17.7107 N   0  0  0  0  0  0  0  0  0  0  0  0
   16.0979    0.2034  -17.2920 C   0  0  0  0  0  0  0  0  0  0  0  0
   15.7150    0.4446  -16.1141 O   0  0  0  0  0  0  0  0  0  0  0  0
   15.2317   -0.3919  -18.1999 C   0  0  0  0  0  0  0  0  0  0  0  0
   15.6392   -0.6623  -19.4595 C   0  0  0  0  0  0  0  0  0  0  0  0
   14.6460   -1.2270  -20.1749 N   0  0  0  0  0  0  0  0  0  0  0  0
   13.6242   -1.2817  -19.2798 C   0  0  0  0  0  0  0  0  0  0  0  0
   13.9536   -0.7811  -18.0634 N   0  0  0  0  0  0  0  0  0  0  0  0
   13.0651   -0.6156  -16.9171 C   0  0  0  0  0  0  0  0  0  0  0  0
   16.8843   -0.3448  -19.9043 N   0  0  0  0  0  0  0  0  0  0  0  0
   17.2683   -0.6105  -21.2966 C   0  0  0  0  0  0  0  0  0  0  0  0
   17.7364    0.2997  -19.0335 C   0  0  0  0  0  0  0  0  0  0  0  0
   18.8561    0.7065  -19.4531 O   0  0  0  0  0  0  0  0  0  0  0  0
  3  4  1  0  0  0
  4  5  1  0  0  0
  4  8  1  0  0  0
  5  6  2  0  0  0
  6  7  1  0  0  0
  7  8  2  0  0  0
  7 14  1  0  0  0
  8  9  1  0  0  0
  9 10  2  0  0  0
  9 11  1  0  0  0
 11  2  1  0  0  0
 11 12  1  0  0  0
  2  1  1  0  0  0
  1 16  1  0  0  0
 16 17  1  0  0  0
 17 18  1  0  0  0
 17 28  1  0  0  0
 18 19  2  0  0  0
 18 20  1  0  0  0
 20 21  2  0  0  0
 20 24  1  0  0  0
 21 22  1  0  0  0
 21 26  1  0  0  0
 22 23  2  0  0  0
 23 24  1  0  0  0
 24 25  1  0  0  0
 26 27  1  0  0  0
 26 28  1  0  0  0
 28 29  2  0  0  0
 12 13  2  0  0  0
 12 14  1  0  0  0
 14 15  1  0  0  0
M  END
> <COMPND>
    ../0-casp/FSwOgs.pdb 

> <AUTHOR>
    GENERATED BY OPEN BABEL 3.1.0

> <MASTER>
        0    0    0    0    0    0    0    0   49    0   49    0

> <minimizedAffinity>
-6.03463

> <CNNscore>
0.4667607844

> <CNNaffinity>
5.0490379333

> <CNN_VS>
2.3566927910

> <CNNaffinity_variance>
0.5564235449

$$$$



 29 32  0  0  0  0  0  0  0  0999 V2000
    4.7885  -29.1945    0.5548 C   0  0  0  0  0  0  0  0  0  0  0  0
    3.6762  -29.6284   -0.4249 C   0  0  0  0  0  0  0  0  0  0  0  0
    6.1387  -30.1691   -5.3786 C   0  0  0  0  0  0  0  0  0  0  0  0
    5.1964  -29.0888   -5.1124 N   0  0  0  0  0  0  0  0  0  0  0  0
    4.8145  -28.1115   -5.9705 C   0  0  0  0  0  0  0  0  0  0  0  0
    3.9564  -27.2173   -5.4150 N   0  0  0  0  0  0  0  0  0  0  0  0
    3.8094  -27.6852   -4.1592 C   0  0  0  0  0  0  0  0  0  0  0  0
    4.5449  -28.8036   -3.9720 C   0  0  0  0  0  0  0  0  0  0  0  0
    4.5363  -29.4560   -2.7467 C   0  0  0  0  0  0  0  0  0  0  0  0
    5.2262  -30.4987   -2.5784 O   0  0  0  0  0  0  0  0  0  0  0  0
    3.7582  -28.9373   -1.7334 N   0  0  0  0  0  0  0  0  0  0  0  0
    3.0894  -27.7356   -1.9265 C   0  0  0  0  0  0  0  0  0  0  0  0
    2.5003  -27.1810   -0.9560 O   0  0  0  0  0  0  0  0  0  0  0  0
    3.0690  -27.1293   -3.1637 N   0  0  0  0  0  0  0  0  0  0  0  0
    2.3402  -25.8736   -3.3847 C   0  0  0  0  0  0  0  0  0  0  0  0
    4.8548  -30.0000    1.8695 C   0  0  0  0  0  0  0  0  0  0  0  0
    5.3405  -29.2070    3.0224 N   0  0  0  0  0  0  0  0  0  0  0  0
    4.4502  -28.4737    3.7797 C   0  0  0  0  0  0  0  0  0  0  0  0
    3.2153  -28.4676    3.5207 O   0  0  0  0  0  0  0  0  0  0  0  0
    4.9449  -27.7279    4.8418 C   0  0  0  0  0  0  0  0  0  0  0  0
    6.2676  -27.7221    5.1177 C   0  0  0  0  0  0  0  0  0  0  0  0
    6.5315  -26.9467    6.1884 N   0  0  0  0  0  0  0  0  0  0  0  0
    5.3005  -26.4884    6.5386 C   0  0  0  0  0  0  0  0  0  0  0  0
    4.3116  -26.9467    5.7320 N   0  0  0  0  0  0  0  0  0  0  0  0
    2.8789  -26.7138    5.8876 C   0  0  0  0  0  0  0  0  0  0  0  0
    7.1622  -28.4550    4.4026 N   0  0  0  0  0  0  0  0  0  0  0  0
    8.5842  -28.4591    4.7692 C   0  0  0  0  0  0  0  0  0  0  0  0
    6.6800  -29.2465    3.3824 C   0  0  0  0  0  0  0  0  0  0  0  0
    7.4712  -30.0221    2.7761 O   0  0  0  0  0  0  0  0  0  0  0  0
  3  4  1  0  0  0
  4  5  1  0  0  0
  4  8  1  0  0  0
  5  6  2  0  0  0
  6  7  1  0  0  0
  7  8  2  0  0  0
  7 14  1  0  0  0
  8  9  1  0  0  0
  9 10  2  0  0  0
  9 11  1  0  0  0
 11  2  1  0  0  0
 11 12  1  0  0  0
  2  1  1  0  0  0
  1 16  1  0  0  0
 16 17  1  0  0  0
 17 18  1  0  0  0
 17 28  1  0  0  0
 18 19  2  0  0  0
 18 20  1  0  0  0
 20 21  2  0  0  0
 20 24  1  0  0  0
 21 22  1  0  0  0
 21 26  1  0  0  0
 22 23  2  0  0  0
 23 24  1  0  0  0
 24 25  1  0  0  0
 26 27  1  0  0  0
 26 28  1  0  0  0
 28 29  2  0  0  0
 12 13  2  0  0  0
 12 14  1  0  0  0
 14 15  1  0  0  0
M  END
> <COMPND>
    ../0-casp/FSwOgs.pdb 

> <AUTHOR>
    GENERATED BY OPEN BABEL 3.1.0

> <MASTER>
        0    0    0    0    0    0    0    0   49    0   49    0

> <minimizedAffinity>
-5.67365

> <CNNscore>
0.4266120493

> <CNNaffinity>
4.4635057449

> <CNN_VS>
1.9041852951

> <CNNaffinity_variance>
1.0600221157

$$$$
