


 29 32  0  0  0  0  0  0  0  0999 V2000
   14.8915   -0.4411  -16.1754 C   0  0  0  0  0  0  0  0  0  0  0  0
   15.6905    0.1455  -14.9910 C   0  0  0  0  0  0  0  0  0  0  0  0
   16.5770   -3.9919  -11.3879 C   0  0  0  0  0  0  0  0  0  0  0  0
   17.6243   -3.5365  -12.2935 N   0  0  0  0  0  0  0  0  0  0  0  0
   18.8906   -4.0130  -12.3791 C   0  0  0  0  0  0  0  0  0  0  0  0
   19.6500   -3.3513  -13.2904 N   0  0  0  0  0  0  0  0  0  0  0  0
   18.7935   -2.4335  -13.7840 C   0  0  0  0  0  0  0  0  0  0  0  0
   17.5806   -2.5400  -13.1947 C   0  0  0  0  0  0  0  0  0  0  0  0
   16.5445   -1.6924  -13.5589 C   0  0  0  0  0  0  0  0  0  0  0  0
   15.4159   -1.7960  -13.0041 O   0  0  0  0  0  0  0  0  0  0  0  0
   16.7820   -0.7470  -14.5337 N   0  0  0  0  0  0  0  0  0  0  0  0
   18.0617   -0.6002  -15.0511 C   0  0  0  0  0  0  0  0  0  0  0  0
   18.3182    0.3610  -15.8303 O   0  0  0  0  0  0  0  0  0  0  0  0
   19.0655   -1.4823  -14.7150 N   0  0  0  0  0  0  0  0  0  0  0  0
   20.4150   -1.3519  -15.2811 C   0  0  0  0  0  0  0  0  0  0  0  0
   14.3912    0.5939  -17.2053 C   0  0  0  0  0  0  0  0  0  0  0  0
   15.2539    0.6970  -18.4045 N   0  0  0  0  0  0  0  0  0  0  0  0
   16.2382    1.6624  -18.4646 C   0  0  0  0  0  0  0  0  0  0  0  0
   16.4334    2.4639  -17.5110 O   0  0  0  0  0  0  0  0  0  0  0  0
   17.0160    1.7408  -19.6134 C   0  0  0  0  0  0  0  0  0  0  0  0
   16.8054    0.8916  -20.6433 C   0  0  0  0  0  0  0  0  0  0  0  0
   17.6709    1.1304  -21.6477 N   0  0  0  0  0  0  0  0  0  0  0  0
   18.4096    2.1661  -21.1690 C   0  0  0  0  0  0  0  0  0  0  0  0
   18.0302    2.5624  -19.9281 N   0  0  0  0  0  0  0  0  0  0  0  0
   18.6710    3.5823  -19.1026 C   0  0  0  0  0  0  0  0  0  0  0  0
   15.8587   -0.0841  -20.5983 N   0  0  0  0  0  0  0  0  0  0  0  0
   15.6977   -1.0173  -21.7207 C   0  0  0  0  0  0  0  0  0  0  0  0
   15.1182   -0.2134  -19.4429 C   0  0  0  0  0  0  0  0  0  0  0  0
   14.3124   -1.1791  -19.3309 O   0  0  0  0  0  0  0  0  0  0  0  0
  1  2  1  0  0  0
  1 16  1  0  0  0
  2 11  1  0  0  0
  3  4  1  0  0  0
  4  5  1  0  0  0
  4  8  1  0  0  0
  5  6  2  0  0  0
  6  7  1  0  0  0
  7  8  2  0  0  0
  7 14  1  0  0  0
  8  9  1  0  0  0
  9 10  2  0  0  0
  9 11  1  0  0  0
 11 12  1  0  0  0
 12 13  2  0  0  0
 12 14  1  0  0  0
 14 15  1  0  0  0
 16 17  1  0  0  0
 17 18  1  0  0  0
 17 28  1  0  0  0
 18 19  2  0  0  0
 18 20  1  0  0  0
 20 21  2  0  0  0
 20 24  1  0  0  0
 21 22  1  0  0  0
 21 26  1  0  0  0
 22 23  2  0  0  0
 23 24  1  0  0  0
 24 25  1  0  0  0
 26 27  1  0  0  0
 26 28  1  0  0  0
 28 29  2  0  0  0
M  END
> <COMPND>
../0-casp/FSwOgs.pdb

> <AUTHOR>
GENERATED BY OPEN BABEL 3.1.0

> <MASTER>
        0    0    0    0    0    0    0    0   29    0   29    0

> <minimizedAffinity>
-7.64216

> <CNNscore>
0.8688303828

> <CNNaffinity>
5.3934817314

> <CNN_VS>
4.6860208511

> <CNNaffinity_variance>
0.4951533675

$$$$



 29 32  0  0  0  0  0  0  0  0999 V2000
   14.7080   -0.5663  -15.9930 C   0  0  0  0  0  0  0  0  0  0  0  0
   14.2547    0.5777  -16.9263 C   0  0  0  0  0  0  0  0  0  0  0  0
   15.8202   -1.0706  -21.9976 C   0  0  0  0  0  0  0  0  0  0  0  0
   16.4521    0.0666  -21.3403 N   0  0  0  0  0  0  0  0  0  0  0  0
   17.4573    0.8341  -21.8287 C   0  0  0  0  0  0  0  0  0  0  0  0
   17.8674    1.7939  -20.9594 N   0  0  0  0  0  0  0  0  0  0  0  0
   17.0618    1.5982  -19.8954 C   0  0  0  0  0  0  0  0  0  0  0  0
   16.2120    0.5693  -20.1169 C   0  0  0  0  0  0  0  0  0  0  0  0
   15.2886    0.1988  -19.1501 C   0  0  0  0  0  0  0  0  0  0  0  0
   14.4997   -0.7629  -19.3624 O   0  0  0  0  0  0  0  0  0  0  0  0
   15.2585    0.9050  -17.9666 N   0  0  0  0  0  0  0  0  0  0  0  0
   16.2053    1.8927  -17.7316 C   0  0  0  0  0  0  0  0  0  0  0  0
   16.2772    2.4363  -16.5932 O   0  0  0  0  0  0  0  0  0  0  0  0
   17.0819    2.2811  -18.7213 N   0  0  0  0  0  0  0  0  0  0  0  0
   18.0672    3.3462  -18.4905 C   0  0  0  0  0  0  0  0  0  0  0  0
   15.3415   -0.1134  -14.6605 C   0  0  0  0  0  0  0  0  0  0  0  0
   14.6503   -0.6510  -13.4663 N   0  0  0  0  0  0  0  0  0  0  0  0
   15.2877   -1.5680  -12.6554 C   0  0  0  0  0  0  0  0  0  0  0  0
   16.4611   -1.9593  -12.8997 O   0  0  0  0  0  0  0  0  0  0  0  0
   14.6009   -2.0642  -11.5540 C   0  0  0  0  0  0  0  0  0  0  0  0
   13.3393   -1.6568  -11.2921 C   0  0  0  0  0  0  0  0  0  0  0  0
   12.8647   -2.2484  -10.1787 N   0  0  0  0  0  0  0  0  0  0  0  0
   13.9043   -3.0319   -9.7873 C   0  0  0  0  0  0  0  0  0  0  0  0
   14.9789   -2.9416  -10.6107 N   0  0  0  0  0  0  0  0  0  0  0  0
   16.2779   -3.5823  -10.4253 C   0  0  0  0  0  0  0  0  0  0  0  0
   12.6989   -0.7358  -12.0614 N   0  0  0  0  0  0  0  0  0  0  0  0
   11.3461   -0.2845  -11.7111 C   0  0  0  0  0  0  0  0  0  0  0  0
   13.3872   -0.1898  -13.1236 C   0  0  0  0  0  0  0  0  0  0  0  0
   12.8592    0.7470  -13.7854 O   0  0  0  0  0  0  0  0  0  0  0  0
  1  2  1  0  0  0
  1 16  1  0  0  0
  2 11  1  0  0  0
  3  4  1  0  0  0
  4  5  1  0  0  0
  4  8  1  0  0  0
  5  6  2  0  0  0
  6  7  1  0  0  0
  7  8  2  0  0  0
  7 14  1  0  0  0
  8  9  1  0  0  0
  9 10  2  0  0  0
  9 11  1  0  0  0
 11 12  1  0  0  0
 12 13  2  0  0  0
 12 14  1  0  0  0
 14 15  1  0  0  0
 16 17  1  0  0  0
 17 18  1  0  0  0
 17 28  1  0  0  0
 18 19  2  0  0  0
 18 20  1  0  0  0
 20 21  2  0  0  0
 20 24  1  0  0  0
 21 22  1  0  0  0
 21 26  1  0  0  0
 22 23  2  0  0  0
 23 24  1  0  0  0
 24 25  1  0  0  0
 26 27  1  0  0  0
 26 28  1  0  0  0
 28 29  2  0  0  0
M  END
> <COMPND>
../0-casp/FSwOgs.pdb

> <AUTHOR>
GENERATED BY OPEN BABEL 3.1.0

> <MASTER>
        0    0    0    0    0    0    0    0   29    0   29    0

> <minimizedAffinity>
-8.10312

> <CNNscore>
0.8345656991

> <CNNaffinity>
5.4113931656

> <CNN_VS>
4.5161633492

> <CNNaffinity_variance>
0.3109075427

$$$$



 29 32  0  0  0  0  0  0  0  0999 V2000
   14.0873   -0.7488  -15.7624 C   0  0  0  0  0  0  0  0  0  0  0  0
   14.5653   -0.0288  -14.4824 C   0  0  0  0  0  0  0  0  0  0  0  0
   15.8039   -3.5440  -10.3598 C   0  0  0  0  0  0  0  0  0  0  0  0
   14.5493   -2.8021  -10.3737 N   0  0  0  0  0  0  0  0  0  0  0  0
   13.5572   -2.8629   -9.4518 C   0  0  0  0  0  0  0  0  0  0  0  0
   12.4879   -2.0863   -9.7656 N   0  0  0  0  0  0  0  0  0  0  0  0
   12.8593   -1.5232  -10.9337 C   0  0  0  0  0  0  0  0  0  0  0  0
   14.0909   -1.9445  -11.3018 C   0  0  0  0  0  0  0  0  0  0  0  0
   14.6709   -1.4834  -12.4747 C   0  0  0  0  0  0  0  0  0  0  0  0
   15.8195   -1.8816  -12.8131 O   0  0  0  0  0  0  0  0  0  0  0  0
   13.9641   -0.5875  -13.2481 N   0  0  0  0  0  0  0  0  0  0  0  0
   12.6659   -0.2479  -12.8929 C   0  0  0  0  0  0  0  0  0  0  0  0
   11.9624    0.4512  -13.6759 O   0  0  0  0  0  0  0  0  0  0  0  0
   12.1247   -0.6755  -11.7000 N   0  0  0  0  0  0  0  0  0  0  0  0
   10.7621   -0.2960  -11.3026 C   0  0  0  0  0  0  0  0  0  0  0  0
   13.5986    0.1805  -16.8936 C   0  0  0  0  0  0  0  0  0  0  0  0
   14.5926    0.3655  -17.9756 N   0  0  0  0  0  0  0  0  0  0  0  0
   15.5384    1.3658  -17.8792 C   0  0  0  0  0  0  0  0  0  0  0  0
   15.5876    2.1311  -16.8783 O   0  0  0  0  0  0  0  0  0  0  0  0
   16.4432    1.5211  -18.9224 C   0  0  0  0  0  0  0  0  0  0  0  0
   16.3896    0.7109  -20.0026 C   0  0  0  0  0  0  0  0  0  0  0  0
   17.3579    1.0230  -20.8858 N   0  0  0  0  0  0  0  0  0  0  0  0
   17.9935    2.0615  -20.2815 C   0  0  0  0  0  0  0  0  0  0  0  0
   17.4544    2.3899  -19.0805 N   0  0  0  0  0  0  0  0  0  0  0  0
   17.9522    3.3942  -18.1446 C   0  0  0  0  0  0  0  0  0  0  0  0
   15.4834   -0.2978  -20.1100 N   0  0  0  0  0  0  0  0  0  0  0  0
   15.4933   -1.1860  -21.2794 C   0  0  0  0  0  0  0  0  0  0  0  0
   14.6168   -0.5028  -19.0578 C   0  0  0  0  0  0  0  0  0  0  0  0
   13.8420   -1.4995  -19.0813 O   0  0  0  0  0  0  0  0  0  0  0  0
  1  2  1  0  0  0
  1 16  1  0  0  0
  2 11  1  0  0  0
  3  4  1  0  0  0
  4  5  1  0  0  0
  4  8  1  0  0  0
  5  6  2  0  0  0
  6  7  1  0  0  0
  7  8  2  0  0  0
  7 14  1  0  0  0
  8  9  1  0  0  0
  9 10  2  0  0  0
  9 11  1  0  0  0
 11 12  1  0  0  0
 12 13  2  0  0  0
 12 14  1  0  0  0
 14 15  1  0  0  0
 16 17  1  0  0  0
 17 18  1  0  0  0
 17 28  1  0  0  0
 18 19  2  0  0  0
 18 20  1  0  0  0
 20 21  2  0  0  0
 20 24  1  0  0  0
 21 22  1  0  0  0
 21 26  1  0  0  0
 22 23  2  0  0  0
 23 24  1  0  0  0
 24 25  1  0  0  0
 26 27  1  0  0  0
 26 28  1  0  0  0
 28 29  2  0  0  0
M  END
> <COMPND>
../0-casp/FSwOgs.pdb

> <AUTHOR>
GENERATED BY OPEN BABEL 3.1.0

> <MASTER>
        0    0    0    0    0    0    0    0   29    0   29    0

> <minimizedAffinity>
-8.57946

> <CNNscore>
0.8153777122

> <CNNaffinity>
5.4986939430

> <CNN_VS>
4.4835124016

> <CNNaffinity_variance>
0.4295692444

$$$$



 29 32  0  0  0  0  0  0  0  0999 V2000
   14.4628   -0.5017  -15.9966 C   0  0  0  0  0  0  0  0  0  0  0  0
   14.0637    0.6082  -16.9937 C   0  0  0  0  0  0  0  0  0  0  0  0
   15.8292   -1.1110  -21.9751 C   0  0  0  0  0  0  0  0  0  0  0  0
   16.4595    0.0120  -21.2923 N   0  0  0  0  0  0  0  0  0  0  0  0
   17.5084    0.7487  -21.7340 C   0  0  0  0  0  0  0  0  0  0  0  0
   17.9020    1.7017  -20.8497 N   0  0  0  0  0  0  0  0  0  0  0  0
   17.0401    1.5342  -19.8257 C   0  0  0  0  0  0  0  0  0  0  0  0
   16.1738    0.5280  -20.0843 C   0  0  0  0  0  0  0  0  0  0  0  0
   15.1943    0.1885  -19.1625 C   0  0  0  0  0  0  0  0  0  0  0  0
   14.3903   -0.7523  -19.4092 O   0  0  0  0  0  0  0  0  0  0  0  0
   15.1260    0.9018  -17.9849 N   0  0  0  0  0  0  0  0  0  0  0  0
   16.0872    1.8643  -17.7079 C   0  0  0  0  0  0  0  0  0  0  0  0
   16.1184    2.4121  -16.5696 O   0  0  0  0  0  0  0  0  0  0  0  0
   17.0217    2.2229  -18.6549 N   0  0  0  0  0  0  0  0  0  0  0  0
   18.0238    3.2617  -18.3806 C   0  0  0  0  0  0  0  0  0  0  0  0
   15.0645   -0.0021  -14.6660 C   0  0  0  0  0  0  0  0  0  0  0  0
   14.4030   -0.5710  -13.4694 N   0  0  0  0  0  0  0  0  0  0  0  0
   13.1464   -0.1336  -13.1030 C   0  0  0  0  0  0  0  0  0  0  0  0
   12.5327    0.7412  -13.7722 O   0  0  0  0  0  0  0  0  0  0  0  0
   12.5650   -0.6769  -11.9638 C   0  0  0  0  0  0  0  0  0  0  0  0
   13.2215   -1.6074  -11.2362 C   0  0  0  0  0  0  0  0  0  0  0  0
   12.4793   -2.0073  -10.1854 N   0  0  0  0  0  0  0  0  0  0  0  0
   11.3458   -1.2688  -10.3188 C   0  0  0  0  0  0  0  0  0  0  0  0
   11.3708   -0.4444  -11.3961 N   0  0  0  0  0  0  0  0  0  0  0  0
   10.2847    0.4101  -11.8676 C   0  0  0  0  0  0  0  0  0  0  0  0
   14.4496   -2.0729  -11.5903 N   0  0  0  0  0  0  0  0  0  0  0  0
   15.1052   -3.1211  -10.7979 C   0  0  0  0  0  0  0  0  0  0  0  0
   15.0151   -1.5874  -12.7498 C   0  0  0  0  0  0  0  0  0  0  0  0
   16.1011   -2.0830  -13.1616 O   0  0  0  0  0  0  0  0  0  0  0  0
  1  2  1  0  0  0
  1 16  1  0  0  0
  2 11  1  0  0  0
  3  4  1  0  0  0
  4  5  1  0  0  0
  4  8  1  0  0  0
  5  6  2  0  0  0
  6  7  1  0  0  0
  7  8  2  0  0  0
  7 14  1  0  0  0
  8  9  1  0  0  0
  9 10  2  0  0  0
  9 11  1  0  0  0
 11 12  1  0  0  0
 12 13  2  0  0  0
 12 14  1  0  0  0
 14 15  1  0  0  0
 16 17  1  0  0  0
 17 18  1  0  0  0
 17 28  1  0  0  0
 18 19  2  0  0  0
 18 20  1  0  0  0
 20 21  2  0  0  0
 20 24  1  0  0  0
 21 22  1  0  0  0
 21 26  1  0  0  0
 22 23  2  0  0  0
 23 24  1  0  0  0
 24 25  1  0  0  0
 26 27  1  0  0  0
 26 28  1  0  0  0
 28 29  2  0  0  0
M  END
> <COMPND>
../0-casp/FSwOgs.pdb

> <AUTHOR>
GENERATED BY OPEN BABEL 3.1.0

> <MASTER>
        0    0    0    0    0    0    0    0   29    0   29    0

> <minimizedAffinity>
-8.16371

> <CNNscore>
0.8089016080

> <CNNaffinity>
5.4633612633

> <CNN_VS>
4.4193215370

> <CNNaffinity_variance>
0.2889901698

$$$$



 29 32  0  0  0  0  0  0  0  0999 V2000
   12.9033   -0.4977  -15.2214 C   0  0  0  0  0  0  0  0  0  0  0  0
   13.4883    0.1385  -13.9415 C   0  0  0  0  0  0  0  0  0  0  0  0
   13.1895   -2.7043   -9.1754 C   0  0  0  0  0  0  0  0  0  0  0  0
   14.3211   -2.8579  -10.0812 N   0  0  0  0  0  0  0  0  0  0  0  0
   15.4039   -3.6541   -9.9038 C   0  0  0  0  0  0  0  0  0  0  0  0
   16.3165   -3.5456  -10.9041 N   0  0  0  0  0  0  0  0  0  0  0  0
   15.7496   -2.6422  -11.7299 C   0  0  0  0  0  0  0  0  0  0  0  0
   14.5560   -2.2288  -11.2458 C   0  0  0  0  0  0  0  0  0  0  0  0
   13.7973   -1.3002  -11.9433 C   0  0  0  0  0  0  0  0  0  0  0  0
   12.6855   -0.9176  -11.4854 O   0  0  0  0  0  0  0  0  0  0  0  0
   14.2879   -0.8158  -13.1370 N   0  0  0  0  0  0  0  0  0  0  0  0
   15.5570   -1.1871  -13.5596 C   0  0  0  0  0  0  0  0  0  0  0  0
   16.0705   -0.6307  -14.5713 O   0  0  0  0  0  0  0  0  0  0  0  0
   16.2750   -2.1476  -12.8809 N   0  0  0  0  0  0  0  0  0  0  0  0
   17.6064   -2.5679  -13.3384 C   0  0  0  0  0  0  0  0  0  0  0  0
   12.7433    0.4644  -16.4176 C   0  0  0  0  0  0  0  0  0  0  0  0
   13.8640    0.3962  -17.3831 N   0  0  0  0  0  0  0  0  0  0  0  0
   14.9239    1.2730  -17.2721 C   0  0  0  0  0  0  0  0  0  0  0  0
   14.9711    2.1358  -16.3539 O   0  0  0  0  0  0  0  0  0  0  0  0
   15.9484    1.1912  -18.2073 C   0  0  0  0  0  0  0  0  0  0  0  0
   15.8992    0.2755  -19.1999 C   0  0  0  0  0  0  0  0  0  0  0  0
   16.9909    0.3587  -19.9849 N   0  0  0  0  0  0  0  0  0  0  0  0
   17.6961    1.3709  -19.4140 C   0  0  0  0  0  0  0  0  0  0  0  0
   17.0819    1.9009  -18.3265 N   0  0  0  0  0  0  0  0  0  0  0  0
   17.6110    2.9349  -17.4416 C   0  0  0  0  0  0  0  0  0  0  0  0
   14.8783   -0.6157  -19.3161 N   0  0  0  0  0  0  0  0  0  0  0  0
   14.8902   -1.6266  -20.3812 C   0  0  0  0  0  0  0  0  0  0  0  0
   13.8834   -0.5868  -18.3624 C   0  0  0  0  0  0  0  0  0  0  0  0
   12.9844   -1.4733  -18.3810 O   0  0  0  0  0  0  0  0  0  0  0  0
  1  2  1  0  0  0
  1 16  1  0  0  0
  2 11  1  0  0  0
  3  4  1  0  0  0
  4  5  1  0  0  0
  4  8  1  0  0  0
  5  6  2  0  0  0
  6  7  1  0  0  0
  7  8  2  0  0  0
  7 14  1  0  0  0
  8  9  1  0  0  0
  9 10  2  0  0  0
  9 11  1  0  0  0
 11 12  1  0  0  0
 12 13  2  0  0  0
 12 14  1  0  0  0
 14 15  1  0  0  0
 16 17  1  0  0  0
 17 18  1  0  0  0
 17 28  1  0  0  0
 18 19  2  0  0  0
 18 20  1  0  0  0
 20 21  2  0  0  0
 20 24  1  0  0  0
 21 22  1  0  0  0
 21 26  1  0  0  0
 22 23  2  0  0  0
 23 24  1  0  0  0
 24 25  1  0  0  0
 26 27  1  0  0  0
 26 28  1  0  0  0
 28 29  2  0  0  0
M  END
> <COMPND>
../0-casp/FSwOgs.pdb

> <AUTHOR>
GENERATED BY OPEN BABEL 3.1.0

> <MASTER>
        0    0    0    0    0    0    0    0   29    0   29    0

> <minimizedAffinity>
-8.29528

> <CNNscore>
0.8029435873

> <CNNaffinity>
5.4766836166

> <CNN_VS>
4.3974680901

> <CNNaffinity_variance>
0.6840046644

$$$$



 29 32  0  0  0  0  0  0  0  0999 V2000
   16.4983   -0.1665  -16.6179 C   0  0  0  0  0  0  0  0  0  0  0  0
   16.9361    0.2268  -15.1899 C   0  0  0  0  0  0  0  0  0  0  0  0
   20.2291   -3.7888  -13.2106 C   0  0  0  0  0  0  0  0  0  0  0  0
   18.8693   -3.6101  -12.7172 N   0  0  0  0  0  0  0  0  0  0  0  0
   18.2411   -4.3540  -11.7739 C   0  0  0  0  0  0  0  0  0  0  0  0
   16.9553   -3.9713  -11.5605 N   0  0  0  0  0  0  0  0  0  0  0  0
   16.8046   -2.9386  -12.4150 C   0  0  0  0  0  0  0  0  0  0  0  0
   17.9449   -2.7156  -13.1077 C   0  0  0  0  0  0  0  0  0  0  0  0
   18.0123   -1.6917  -14.0413 C   0  0  0  0  0  0  0  0  0  0  0  0
   19.0786   -1.4900  -14.6852 O   0  0  0  0  0  0  0  0  0  0  0  0
   16.8940   -0.9106  -14.2403 N   0  0  0  0  0  0  0  0  0  0  0  0
   15.7114   -1.2239  -13.5842 C   0  0  0  0  0  0  0  0  0  0  0  0
   14.6479   -0.6074  -13.8767 O   0  0  0  0  0  0  0  0  0  0  0  0
   15.6762   -2.2117  -12.6242 N   0  0  0  0  0  0  0  0  0  0  0  0
   14.4358   -2.5294  -11.9037 C   0  0  0  0  0  0  0  0  0  0  0  0
   15.7892    0.9477  -17.4165 C   0  0  0  0  0  0  0  0  0  0  0  0
   16.6399    1.5530  -18.4667 N   0  0  0  0  0  0  0  0  0  0  0  0
   16.6824    0.9927  -19.7272 C   0  0  0  0  0  0  0  0  0  0  0  0
   16.0011   -0.0278  -20.0174 O   0  0  0  0  0  0  0  0  0  0  0  0
   17.5061    1.5773  -20.6815 C   0  0  0  0  0  0  0  0  0  0  0  0
   18.2467    2.6651  -20.3742 C   0  0  0  0  0  0  0  0  0  0  0  0
   18.9612    3.0765  -21.4397 N   0  0  0  0  0  0  0  0  0  0  0  0
   18.6129    2.1801  -22.4003 C   0  0  0  0  0  0  0  0  0  0  0  0
   17.7264    1.2500  -21.9648 N   0  0  0  0  0  0  0  0  0  0  0  0
   17.0900    0.2074  -22.7650 C   0  0  0  0  0  0  0  0  0  0  0  0
   18.2033    3.2505  -19.1472 N   0  0  0  0  0  0  0  0  0  0  0  0
   18.9872    4.4614  -18.8721 C   0  0  0  0  0  0  0  0  0  0  0  0
   17.3471    2.7184  -18.2071 C   0  0  0  0  0  0  0  0  0  0  0  0
   17.2030    3.3075  -17.0996 O   0  0  0  0  0  0  0  0  0  0  0  0
  1  2  1  0  0  0
  1 16  1  0  0  0
  2 11  1  0  0  0
  3  4  1  0  0  0
  4  5  1  0  0  0
  4  8  1  0  0  0
  5  6  2  0  0  0
  6  7  1  0  0  0
  7  8  2  0  0  0
  7 14  1  0  0  0
  8  9  1  0  0  0
  9 10  2  0  0  0
  9 11  1  0  0  0
 11 12  1  0  0  0
 12 13  2  0  0  0
 12 14  1  0  0  0
 14 15  1  0  0  0
 16 17  1  0  0  0
 17 18  1  0  0  0
 17 28  1  0  0  0
 18 19  2  0  0  0
 18 20  1  0  0  0
 20 21  2  0  0  0
 20 24  1  0  0  0
 21 22  1  0  0  0
 21 26  1  0  0  0
 22 23  2  0  0  0
 23 24  1  0  0  0
 24 25  1  0  0  0
 26 27  1  0  0  0
 26 28  1  0  0  0
 28 29  2  0  0  0
M  END
> <COMPND>
../0-casp/FSwOgs.pdb

> <AUTHOR>
GENERATED BY OPEN BABEL 3.1.0

> <MASTER>
        0    0    0    0    0    0    0    0   29    0   29    0

> <minimizedAffinity>
-7.37928

> <CNNscore>
0.7906530499

> <CNNaffinity>
5.2258424759

> <CNN_VS>
4.1318283081

> <CNNaffinity_variance>
0.3583090305

$$$$



 29 32  0  0  0  0  0  0  0  0999 V2000
   18.0861   -1.0338  -13.3059 C   0  0  0  0  0  0  0  0  0  0  0  0
   17.0614   -2.1721  -13.5049 C   0  0  0  0  0  0  0  0  0  0  0  0
   12.2892    0.6438  -13.9336 C   0  0  0  0  0  0  0  0  0  0  0  0
   12.5403   -0.2590  -12.8171 N   0  0  0  0  0  0  0  0  0  0  0  0
   11.7089   -0.5207  -11.7788 C   0  0  0  0  0  0  0  0  0  0  0  0
   12.2447   -1.3732  -10.8671 N   0  0  0  0  0  0  0  0  0  0  0  0
   13.4591   -1.6441  -11.3879 C   0  0  0  0  0  0  0  0  0  0  0  0
   13.6416   -0.9837  -12.5543 C   0  0  0  0  0  0  0  0  0  0  0  0
   14.8249   -1.1240  -13.2646 C   0  0  0  0  0  0  0  0  0  0  0  0
   14.9894   -0.5038  -14.3512 O   0  0  0  0  0  0  0  0  0  0  0  0
   15.8021   -1.9518  -12.7547 N   0  0  0  0  0  0  0  0  0  0  0  0
   15.6233   -2.5404  -11.5102 C   0  0  0  0  0  0  0  0  0  0  0  0
   16.5746   -3.1748  -10.9724 O   0  0  0  0  0  0  0  0  0  0  0  0
   14.4230   -2.4306  -10.8425 N   0  0  0  0  0  0  0  0  0  0  0  0
   14.2153   -3.0754   -9.5387 C   0  0  0  0  0  0  0  0  0  0  0  0
   18.9827   -0.7379  -14.5268 C   0  0  0  0  0  0  0  0  0  0  0  0
   18.6505    0.5345  -15.2077 N   0  0  0  0  0  0  0  0  0  0  0  0
   19.2472    1.7104  -14.8004 C   0  0  0  0  0  0  0  0  0  0  0  0
   20.0856    1.7317  -13.8590 O   0  0  0  0  0  0  0  0  0  0  0  0
   18.8969    2.8875  -15.4507 C   0  0  0  0  0  0  0  0  0  0  0  0
   17.9913    2.8734  -16.4537 C   0  0  0  0  0  0  0  0  0  0  0  0
   17.8062    4.1115  -16.9512 N   0  0  0  0  0  0  0  0  0  0  0  0
   18.6449    4.8685  -16.1954 C   0  0  0  0  0  0  0  0  0  0  0  0
   19.3233    4.1474  -15.2678 N   0  0  0  0  0  0  0  0  0  0  0  0
   20.3578    4.6407  -14.3630 C   0  0  0  0  0  0  0  0  0  0  0  0
   17.4083    1.7245  -16.8899 N   0  0  0  0  0  0  0  0  0  0  0  0
   16.4667    1.7488  -18.0165 C   0  0  0  0  0  0  0  0  0  0  0  0
   17.7884    0.5405  -16.2950 C   0  0  0  0  0  0  0  0  0  0  0  0
   17.3487   -0.5503  -16.7545 O   0  0  0  0  0  0  0  0  0  0  0  0
  1  2  1  0  0  0
  1 16  1  0  0  0
  2 11  1  0  0  0
  3  4  1  0  0  0
  4  5  1  0  0  0
  4  8  1  0  0  0
  5  6  2  0  0  0
  6  7  1  0  0  0
  7  8  2  0  0  0
  7 14  1  0  0  0
  8  9  1  0  0  0
  9 10  2  0  0  0
  9 11  1  0  0  0
 11 12  1  0  0  0
 12 13  2  0  0  0
 12 14  1  0  0  0
 14 15  1  0  0  0
 16 17  1  0  0  0
 17 18  1  0  0  0
 17 28  1  0  0  0
 18 19  2  0  0  0
 18 20  1  0  0  0
 20 21  2  0  0  0
 20 24  1  0  0  0
 21 22  1  0  0  0
 21 26  1  0  0  0
 22 23  2  0  0  0
 23 24  1  0  0  0
 24 25  1  0  0  0
 26 27  1  0  0  0
 26 28  1  0  0  0
 28 29  2  0  0  0
M  END
> <COMPND>
../0-casp/FSwOgs.pdb

> <AUTHOR>
GENERATED BY OPEN BABEL 3.1.0

> <MASTER>
        0    0    0    0    0    0    0    0   29    0   29    0

> <minimizedAffinity>
-7.02682

> <CNNscore>
0.7725546360

> <CNNaffinity>
5.3737716675

> <CNN_VS>
4.1515321732

> <CNNaffinity_variance>
0.5106987953

$$$$



 29 32  0  0  0  0  0  0  0  0999 V2000
   15.9536    0.0392  -16.9042 C   0  0  0  0  0  0  0  0  0  0  0  0
   16.4465    0.4475  -15.4986 C   0  0  0  0  0  0  0  0  0  0  0  0
   16.2750   -3.6507  -11.7487 C   0  0  0  0  0  0  0  0  0  0  0  0
   17.4862   -3.3672  -12.5085 N   0  0  0  0  0  0  0  0  0  0  0  0
   18.6765   -4.0089  -12.4126 C   0  0  0  0  0  0  0  0  0  0  0  0
   19.6335   -3.4832  -13.2205 N   0  0  0  0  0  0  0  0  0  0  0  0
   18.9828   -2.4772  -13.8402 C   0  0  0  0  0  0  0  0  0  0  0  0
   17.6986   -2.4036  -13.4214 C   0  0  0  0  0  0  0  0  0  0  0  0
   16.8448   -1.4392  -13.9365 C   0  0  0  0  0  0  0  0  0  0  0  0
   15.6484   -1.3749  -13.5404 O   0  0  0  0  0  0  0  0  0  0  0  0
   17.3362   -0.5657  -14.8830 N   0  0  0  0  0  0  0  0  0  0  0  0
   18.6818   -0.6058  -15.2219 C   0  0  0  0  0  0  0  0  0  0  0  0
   19.1679    0.2872  -15.9724 O   0  0  0  0  0  0  0  0  0  0  0  0
   19.5030   -1.6011  -14.7386 N   0  0  0  0  0  0  0  0  0  0  0  0
   20.9214   -1.6682  -15.1160 C   0  0  0  0  0  0  0  0  0  0  0  0
   15.5198    1.2094  -17.8123 C   0  0  0  0  0  0  0  0  0  0  0  0
   16.5766    1.6502  -18.7513 N   0  0  0  0  0  0  0  0  0  0  0  0
   16.6876    1.0565  -19.9922 C   0  0  0  0  0  0  0  0  0  0  0  0
   15.8983    0.1441  -20.3585 O   0  0  0  0  0  0  0  0  0  0  0  0
   17.7031    1.4834  -20.8393 C   0  0  0  0  0  0  0  0  0  0  0  0
   18.5588    2.4538  -20.4491 C   0  0  0  0  0  0  0  0  0  0  0  0
   19.4542    2.7232  -21.4189 N   0  0  0  0  0  0  0  0  0  0  0  0
   19.0932    1.8649  -22.4092 C   0  0  0  0  0  0  0  0  0  0  0  0
   18.0270    1.0923  -22.0821 N   0  0  0  0  0  0  0  0  0  0  0  0
   17.3412    0.1376  -22.9485 C   0  0  0  0  0  0  0  0  0  0  0  0
   18.4550    3.0715  -19.2417 N   0  0  0  0  0  0  0  0  0  0  0  0
   19.3762    4.1560  -18.8788 C   0  0  0  0  0  0  0  0  0  0  0  0
   17.4175    2.7010  -18.4132 C   0  0  0  0  0  0  0  0  0  0  0  0
   17.2303    3.3345  -17.3371 O   0  0  0  0  0  0  0  0  0  0  0  0
  1  2  1  0  0  0
  1 16  1  0  0  0
  2 11  1  0  0  0
  3  4  1  0  0  0
  4  5  1  0  0  0
  4  8  1  0  0  0
  5  6  2  0  0  0
  6  7  1  0  0  0
  7  8  2  0  0  0
  7 14  1  0  0  0
  8  9  1  0  0  0
  9 10  2  0  0  0
  9 11  1  0  0  0
 11 12  1  0  0  0
 12 13  2  0  0  0
 12 14  1  0  0  0
 14 15  1  0  0  0
 16 17  1  0  0  0
 17 18  1  0  0  0
 17 28  1  0  0  0
 18 19  2  0  0  0
 18 20  1  0  0  0
 20 21  2  0  0  0
 20 24  1  0  0  0
 21 22  1  0  0  0
 21 26  1  0  0  0
 22 23  2  0  0  0
 23 24  1  0  0  0
 24 25  1  0  0  0
 26 27  1  0  0  0
 26 28  1  0  0  0
 28 29  2  0  0  0
M  END
> <COMPND>
../0-casp/FSwOgs.pdb

> <AUTHOR>
GENERATED BY OPEN BABEL 3.1.0

> <MASTER>
        0    0    0    0    0    0    0    0   29    0   29    0

> <minimizedAffinity>
-7.06178

> <CNNscore>
0.7583579421

> <CNNaffinity>
5.1219186783

> <CNN_VS>
3.8842477798

> <CNNaffinity_variance>
0.5221502781

$$$$



 29 32  0  0  0  0  0  0  0  0999 V2000
   14.2851   -0.6290  -16.0653 C   0  0  0  0  0  0  0  0  0  0  0  0
   13.7390    0.1870  -17.2574 C   0  0  0  0  0  0  0  0  0  0  0  0
   18.0120    3.5176  -18.4963 C   0  0  0  0  0  0  0  0  0  0  0  0
   17.6484    2.3978  -19.3556 N   0  0  0  0  0  0  0  0  0  0  0  0
   18.2493    2.0322  -20.5146 C   0  0  0  0  0  0  0  0  0  0  0  0
   17.6511    0.9706  -21.1148 N   0  0  0  0  0  0  0  0  0  0  0  0
   16.6420    0.6778  -20.2689 C   0  0  0  0  0  0  0  0  0  0  0  0
   16.6359    1.5250  -19.2143 C   0  0  0  0  0  0  0  0  0  0  0  0
   15.6807    1.3990  -18.2161 C   0  0  0  0  0  0  0  0  0  0  0  0
   15.6795    2.1936  -17.2358 O   0  0  0  0  0  0  0  0  0  0  0  0
   14.7462    0.3915  -18.3256 N   0  0  0  0  0  0  0  0  0  0  0  0
   14.7203   -0.4008  -19.4652 C   0  0  0  0  0  0  0  0  0  0  0  0
   13.7758   -1.2220  -19.6384 O   0  0  0  0  0  0  0  0  0  0  0  0
   15.7061   -0.2947  -20.4222 N   0  0  0  0  0  0  0  0  0  0  0  0
   15.7027   -1.1501  -21.6167 C   0  0  0  0  0  0  0  0  0  0  0  0
   14.5795    0.1897  -14.7904 C   0  0  0  0  0  0  0  0  0  0  0  0
   13.7211   -0.1792  -13.6415 N   0  0  0  0  0  0  0  0  0  0  0  0
   12.4461    0.3389  -13.5393 C   0  0  0  0  0  0  0  0  0  0  0  0
   11.9809    1.1202  -14.4127 O   0  0  0  0  0  0  0  0  0  0  0  0
   11.6765   -0.0153  -12.4377 C   0  0  0  0  0  0  0  0  0  0  0  0
   12.1726   -0.8442  -11.4927 C   0  0  0  0  0  0  0  0  0  0  0  0
   11.2641   -1.0655  -10.5229 N   0  0  0  0  0  0  0  0  0  0  0  0
   10.1994   -0.3267  -10.9332 C   0  0  0  0  0  0  0  0  0  0  0  0
   10.4234    0.3285  -12.0999 N   0  0  0  0  0  0  0  0  0  0  0  0
    9.4613    1.1309  -12.8501 C   0  0  0  0  0  0  0  0  0  0  0  0
   13.4163   -1.3875  -11.5833 N   0  0  0  0  0  0  0  0  0  0  0  0
   13.8962   -2.3232  -10.5583 C   0  0  0  0  0  0  0  0  0  0  0  0
   14.1705   -1.0931  -12.6990 C   0  0  0  0  0  0  0  0  0  0  0  0
   15.2809   -1.6712  -12.8636 O   0  0  0  0  0  0  0  0  0  0  0  0
  1  2  1  0  0  0
  1 16  1  0  0  0
  2 11  1  0  0  0
  3  4  1  0  0  0
  4  5  1  0  0  0
  4  8  1  0  0  0
  5  6  2  0  0  0
  6  7  1  0  0  0
  7  8  2  0  0  0
  7 14  1  0  0  0
  8  9  1  0  0  0
  9 10  2  0  0  0
  9 11  1  0  0  0
 11 12  1  0  0  0
 12 13  2  0  0  0
 12 14  1  0  0  0
 14 15  1  0  0  0
 16 17  1  0  0  0
 17 18  1  0  0  0
 17 28  1  0  0  0
 18 19  2  0  0  0
 18 20  1  0  0  0
 20 21  2  0  0  0
 20 24  1  0  0  0
 21 22  1  0  0  0
 21 26  1  0  0  0
 22 23  2  0  0  0
 23 24  1  0  0  0
 24 25  1  0  0  0
 26 27  1  0  0  0
 26 28  1  0  0  0
 28 29  2  0  0  0
M  END
> <COMPND>
../0-casp/FSwOgs.pdb

> <AUTHOR>
GENERATED BY OPEN BABEL 3.1.0

> <MASTER>
        0    0    0    0    0    0    0    0   29    0   29    0

> <minimizedAffinity>
-8.30584

> <CNNscore>
0.7287336588

> <CNNaffinity>
5.4495549202

> <CNN_VS>
3.9712741375

> <CNNaffinity_variance>
0.3823277056

$$$$
